Version 4.1
SHEET 1 880 800
WIRE -448 -48 -720 -48
WIRE -112 -48 -384 -48
WIRE 192 0 -32 0
WIRE -864 32 -976 32
WIRE -592 32 -864 32
WIRE -256 32 -592 32
WIRE 64 32 -256 32
WIRE -976 96 -976 32
WIRE -720 112 -720 -48
WIRE -688 112 -720 112
WIRE -432 112 -496 112
WIRE -384 112 -384 -48
WIRE -352 112 -384 112
WIRE -96 112 -160 112
WIRE -32 112 -32 0
WIRE -768 144 -800 144
WIRE -688 144 -768 144
WIRE -432 144 -432 112
WIRE -352 144 -432 144
WIRE -96 144 -96 112
WIRE -32 144 -96 144
WIRE -480 176 -496 176
WIRE -448 176 -448 -48
WIRE -448 176 -480 176
WIRE -144 176 -160 176
WIRE -112 176 -112 -48
WIRE -112 176 -144 176
WIRE 176 176 160 176
WIRE 192 176 192 0
WIRE 192 176 176 176
WIRE -976 224 -976 176
WIRE -864 256 -864 32
WIRE -592 256 -864 256
WIRE -256 256 -592 256
WIRE 64 256 -256 256
WIRE -800 352 -800 144
WIRE -800 576 -800 432
FLAG -800 576 0
FLAG -768 144 CLK
FLAG -976 224 0
FLAG -480 176 Q1
FLAG -144 176 Q2
FLAG 176 176 Q3
SYMBOL lib\\lib\\sym\\ZZZ\\LOGIC\\74HC\\74hc74 -256 32 R0
SYMATTR InstName U2
SYMATTR SpiceLine VCC=5 SPEED=1.0 TRIPDT=1e-9
SYMBOL lib\\lib\\sym\\ZZZ\\LOGIC\\74HC\\74hc74 -592 32 R0
SYMATTR InstName U1
SYMATTR SpiceLine VCC=5 SPEED=1.0 TRIPDT=1e-9
SYMBOL voltage -800 336 R0
WINDOW 123 0 0 Left 0
WINDOW 39 0 0 Left 0
WINDOW 3 67 83 Left 2
SYMATTR Value PULSE(0 5 0.5 0.001 0.001 0.5 1 10)
SYMATTR InstName CLK
SYMBOL voltage -976 80 R0
WINDOW 0 24 96 Left 2
WINDOW 3 24 16 Left 2
WINDOW 123 0 0 Left 0
WINDOW 39 0 0 Left 0
SYMATTR InstName VCC
SYMATTR Value 5V
SYMBOL lib\\lib\\sym\\ZZZ\\LOGIC\\74HC\\74hc74 64 32 R0
SYMATTR InstName U3
SYMATTR SpiceLine VCC=5 SPEED=1.0 TRIPDT=1e-9
TEXT -616 784 Left 2 !.tran 10
